src/test/resources/netPositionsData/20190618_0030_2D2_SK0.UCT
##C 2007.05.01

##N
##ZSK
QSLACK11 SLACK        0 2 400.00   10.00   10.00   10.00   10.00  200.00   20.00
QLOAD111 LOAD         1 2 400.00   10.00   10.00   10.00   10.00   20.00   20.00
QLI_PB21 SHADOW       1 2 400.00   10.00   10.00   10.00   10.00 -215.00   20.00
QHU_SK11 SHADOW       1 2 400.00   10.00   10.00   10.00   10.00   20.00   20.00
QPL_SK11 SHADOW       1 2 400.00   10.00   10.00   10.00   10.00   20.00   20.00
QUA_SK11 SHADOW       1 2 400.00   10.00   10.00   10.00   10.00  415.00   20.00
##ZXX
XLI_PB21 CORE         1 0 400.00   10.00   10.00   10.00   10.00   20.00   20.00
XHU_SK11 CORE         1 0 400.00   10.00   10.00   10.00   10.00   20.00   20.00
XPL_SK11 CORE         1 0 400.00   10.00   10.00   10.00   10.00   20.00   20.00
XUA_SK11 OUT          1 0 400.00   10.00   10.00   10.00   10.00   20.00   20.00
##L
QLI_PB21 XLI_PB21 1 0  20.00  20.00   20.00   5000
QHU_SK11 XHU_SK11 1 0  20.00  20.00   20.00   5000
QPL_SK11 XPL_SK11 1 0  20.00  20.00   20.00   5000
QUA_SK11 XUA_SK11 1 0  20.00  20.00   20.00   5000
##T
##R
